Version 4
SHEET 1 952 680
WIRE -416 -208 -560 -208
WIRE -560 -80 -560 -208
WIRE -416 -80 -416 -128
WIRE -304 -80 -416 -80
WIRE -416 0 -416 -80
WIRE 176 64 64 64
WIRE 368 64 240 64
WIRE 704 64 592 64
WIRE 896 64 768 64
WIRE 176 112 176 80
WIRE 176 112 128 112
WIRE 704 112 704 80
WIRE 704 112 656 112
WIRE -480 144 -560 144
WIRE -560 208 -560 144
WIRE -480 208 -560 208
WIRE 176 208 64 208
WIRE 368 208 240 208
WIRE 704 208 592 208
WIRE 896 208 768 208
WIRE 176 256 176 224
WIRE 176 256 128 256
WIRE 704 256 704 224
WIRE 704 256 656 256
WIRE -560 272 -560 208
WIRE -480 272 -560 272
WIRE -560 336 -560 272
WIRE -480 336 -560 336
WIRE 176 352 64 352
WIRE 368 352 240 352
WIRE 704 352 592 352
WIRE 896 352 768 352
WIRE -560 400 -560 336
WIRE -480 400 -560 400
WIRE 176 400 176 368
WIRE 176 400 128 400
WIRE 704 400 704 368
WIRE 704 400 656 400
WIRE -560 464 -560 400
WIRE -480 464 -560 464
WIRE -560 496 -560 464
FLAG 64 64 PWM1
FLAG 64 208 PWM2
FLAG 64 352 PWM3
FLAG 368 288 0
FLAG 368 144 0
FLAG 368 432 0
FLAG 592 64 PWM1
FLAG 592 208 PWM2
FLAG 592 352 PWM3
FLAG 896 288 0
FLAG 896 144 0
FLAG 896 432 0
FLAG -560 576 0
FLAG -560 0 0
FLAG -304 -80 OE
FLAG -480 144 PWM1
FLAG -480 208 PWM2
FLAG -480 272 PWM3
FLAG -480 336 PWM4
FLAG -480 400 PWM5
FLAG -480 464 PWM6
FLAG 128 112 OE
FLAG 128 256 OE
FLAG 128 400 OE
FLAG 656 112 OE
FLAG 656 256 OE
FLAG 656 400 OE
FLAG -416 0 0
SYMBOL Digital\\buf1 176 0 R0
SYMATTR InstName A2
SYMBOL Digital\\buf1 176 144 R0
SYMATTR InstName A4
SYMBOL Digital\\buf1 176 288 R0
SYMATTR InstName A6
SYMBOL res 352 48 R0
SYMATTR InstName R1
SYMATTR Value 2K
SYMBOL res 352 192 R0
SYMATTR InstName R2
SYMATTR Value 2K
SYMBOL res 352 336 R0
SYMATTR InstName R3
SYMATTR Value 2K
SYMBOL Digital\\buf1 704 0 R0
SYMATTR InstName A9
SYMBOL Digital\\buf1 704 144 R0
SYMATTR InstName A12
SYMBOL Digital\\buf1 704 288 R0
SYMATTR InstName A14
SYMBOL res 880 48 R0
SYMATTR InstName R4
SYMATTR Value 2K
SYMBOL res 880 192 R0
SYMATTR InstName R5
SYMATTR Value 2K
SYMBOL res 880 336 R0
SYMATTR InstName R6
SYMATTR Value 2K
SYMBOL voltage -560 -96 R0
WINDOW 123 0 0 Left 0
WINDOW 39 0 0 Left 0
SYMATTR InstName V1
SYMATTR Value 5V
SYMBOL voltage -560 480 R0
WINDOW 123 0 0 Left 0
WINDOW 39 0 0 Left 0
SYMATTR InstName V2
SYMATTR Value PULSE(0 3 49u 1u 1u 49u 100u)
SYMBOL res -432 -224 R0
SYMATTR InstName R7
SYMATTR Value 91K
TEXT -560 88 Left 2 !.tran 0 1m 0 1u
TEXT -408 -32 Left 2 ;<-- mech. switch here
