Version 4
SHEET 1 880 680
TEXT 224 192 Left 2 !.include lm393.lib
